/*--------------------------------*- C++ -*----------------------------------*\
  =========                 |
  \\      /  F ield         | OpenFOAM: The Open Source CFD Toolbox
   \\    /   O peration     | Website:  https://openfoam.org
    \\  /    A nd           | Version:  13
     \\/     M anipulation  |
\*---------------------------------------------------------------------------*/
FoamFile
{
    version     0.0;
    format      ascii;
    class       polyBoundaryMesh;
    location    "constant/polyMesh";
    object      boundary;
}
// * * * * * * * * * * * * * * * * * * * * * * * * * * * * * * * * * * * * * //


7
(
    FRONT
    {
        type            empty;
        physicalType    patch;
        nFaces          96595;
        startFace       192302;
    }

    INLET
    {
        type            patch;
        physicalType    patch;
        nFaces          79;
        startFace       288897;
    }

    SOLID_WALL
    {
        type            wall;
        physicalType    patch;
        nFaces          324;
        startFace       288976;
    }

    AXIALSYMMETRY
    {
        type            symmetryPlane;
        physicalType    patch;
        nFaces          541;
        startFace       289300;
    }

    BACK
    {
        type            empty;
        physicalType    patch;
        nFaces          96595;
        startFace       289841;
    }

    FARFIELD
    {
        type            patch;
        physicalType    patch;
        nFaces          657;
        startFace       386436;
    }

    OUTLET
    {
        type            patch;
        physicalType    patch;
        nFaces          175;
        startFace       387093;
    }

)


// ************************************************************************* //
