/*--------------------------------*- C++ -*----------------------------------*\
  =========                 |
  \\      /  F ield         | OpenFOAM: The Open Source CFD Toolbox
   \\    /   O peration     | Website:  https://openfoam.org
    \\  /    A nd           | Version:  13
     \\/     M anipulation  |
\*---------------------------------------------------------------------------*/
FoamFile
{
    version     0.0;
    format      ascii;
    class       polyBoundaryMesh;
    location    "constant/polyMesh";
    object      boundary;
}
// * * * * * * * * * * * * * * * * * * * * * * * * * * * * * * * * * * * * * //


7
(
    FRONT
    {
        type            empty;
        physicalType    patch;
        nFaces          96674;
        startFace       192461;
    }

    INLET
    {
        type            patch;
        physicalType    patch;
        nFaces          47;
        startFace       289135;
    }

    SOLID_WALL
    {
        type            wall;
        physicalType    patch;
        nFaces          324;
        startFace       289182;
    }

    AXIALSYMMETRY
    {
        type            symmetryPlane;
        physicalType    patch;
        nFaces          541;
        startFace       289506;
    }

    BACK
    {
        type            empty;
        physicalType    patch;
        nFaces          96674;
        startFace       290047;
    }

    FARFIELD
    {
        type            patch;
        physicalType    patch;
        nFaces          688;
        startFace       386721;
    }

    OUTLET
    {
        type            patch;
        physicalType    patch;
        nFaces          174;
        startFace       387409;
    }

)


// ************************************************************************* //
