FoamFile
{
    version     2.0;
    format      ascii;
    class       dictionary;
    object      setFieldsDict;
}

defaultFieldValues
(
    volScalarFieldValue p 101325;
    volVectorFieldValue U (0 0 0);
);

regions
(
    zoneToCell
    {
        zone INIT_ZONE;
        fieldValues
        (
            volScalarFieldValue p 5e6;
            volVectorFieldValue U (150 0 0);
        );
    }
);
