FoamFile
{
    version     2.0;
    format      ascii;
    class       volVectorField;
    object      U;
}

dimensions      [0 1 -1 0 0 0 0];

internalField   uniform (0 0 0);

boundaryField
{
    SOLID_WALL
    {
        type        noSlip;
    }

    INLET
    {
        type        pressureInletOutletVelocity;
        value       uniform (0 0 0);
    }

    OUTLET
    {
        type        pressureInletOutletVelocity;
        value       uniform (0 0 0);
    }

    FARFIELD
    {
        type        pressureInletOutletVelocity;
        value       uniform (0 0 0);
    }

    AXIALSYMMETRY
    {
        type        symmetryPlane;
    }

    FRONT
    {
        type        empty;
    }

    BACK
    {
        type        empty;
    }
}
